Circuit: * Z:\home\miceuz\Xaltura\linear-dimmer\color-mixer.asc

WARNING: Specified period is not longer than the sum of Trise, Tfall, and Ton for v2.  Increasing period to 2
Direct Newton iteration for .op point succeeded.

Date: Mon Jan 04 11:13:10 2016
Total elapsed time: 0.054 seconds.

tnom = 27
temp = 27
method = modified trap
totiter = 2105
traniter = 2098
tranpoints = 1050
accept = 1049
rejected = 1
matrix size = 11
fillins = 1
solver = Normal
Matrix Compiler1: 432 bytes object code size  0.3/0.2/[0.2]
Matrix Compiler2: off  [0.3]/0.3/0.3


