Circuit: * Z:\home\miceuz\Xaltura\linear-dimmer\nonlinear_pot.asc


Date: Wed Dec 30 00:13:45 2015
Total elapsed time: 0.227 seconds.

tnom = 27
temp = 27
method = trap
totiter = 1964
traniter = 0
tranpoints = 0
accept = 0
rejected = 0
matrix size = 6
fillins = 0
solver = Normal
Matrix Compiler1: 146 bytes object code size  0.2/0.2/[0.2]
Matrix Compiler2: 360 bytes object code size  0.2/0.2/[0.2]


