Circuit: * Z:\home\miceuz\Xaltura\linear-dimmer\nonlinear_pot.asc


Date: Fri Sep 25 20:32:51 2015
Total elapsed time: 0.128 seconds.

tnom = 27
temp = 27
method = trap
totiter = 1964
traniter = 0
tranpoints = 0
accept = 0
rejected = 0
matrix size = 7
fillins = 0
solver = Normal
Matrix Compiler1: 196 bytes object code size  0.2/0.2/[0.2]
Matrix Compiler2: 467 bytes object code size  0.2/0.3/[0.2]


